*SPEF "ieee 1481-1999"
*DESIGN "tt_um_3x2_test"
*DATE "11:11:11 Fri 11 11, 1111"
*VENDOR "OpenRCX"
*PROGRAM "Parallel Extraction"
*VERSION "1.0"
*DESIGN_FLOW "NAME_SCOPE LOCAL" "PIN_CAP NONE"
*DIVIDER /
*DELIMITER :
*BUS_DELIMITER []
*T_UNIT 1 NS
*C_UNIT 1 PF
*R_UNIT 1 OHM
*L_UNIT 1 HENRY

*NAME_MAP
*3 clk
*4 ena
*5 rst_n
*6 ui_in[0]
*7 ui_in[1]
*8 ui_in[2]
*9 ui_in[3]
*10 ui_in[4]
*11 ui_in[5]
*12 ui_in[6]
*13 ui_in[7]
*14 uio_in[0]
*15 uio_in[1]
*16 uio_in[2]
*17 uio_in[3]
*18 uio_in[4]
*19 uio_in[5]
*20 uio_in[6]
*21 uio_in[7]
*22 net13
*23 net14
*24 net15
*25 net16
*26 net17
*27 net18
*28 net19
*29 net20
*30 uio_out[0]
*31 uio_out[1]
*32 uio_out[2]
*33 uio_out[3]
*34 uio_out[4]
*35 uio_out[5]
*36 uio_out[6]
*37 uio_out[7]
*38 uo_out[0]
*39 uo_out[1]
*40 uo_out[2]
*41 uo_out[3]
*42 uo_out[4]
*43 uo_out[5]
*44 uo_out[6]
*45 net12
*46 _000_
*47 _001_
*48 _002_
*49 _003_
*50 _004_
*51 _005_
*52 _006_
*53 _007_
*54 _008_
*55 _009_
*56 _010_
*57 _011_
*58 _012_
*59 _013_
*60 _014_
*61 _015_
*62 _016_
*63 _017_
*64 _018_
*65 _019_
*66 _020_
*67 _021_
*68 _022_
*69 _023_
*70 _024_
*71 _025_
*72 _026_
*73 _027_
*74 _028_
*75 _029_
*76 _030_
*77 _031_
*78 _032_
*79 _033_
*80 _034_
*81 _035_
*82 _036_
*83 _037_
*84 _038_
*85 _039_
*86 _040_
*87 _041_
*88 _042_
*89 _043_
*90 _044_
*91 _045_
*92 _046_
*93 _047_
*94 _048_
*95 _049_
*96 _050_
*97 _051_
*98 _052_
*99 _053_
*100 _054_
*101 _055_
*102 _056_
*103 _057_
*104 _058_
*105 _059_
*106 _060_
*107 _061_
*108 _062_
*109 _063_
*110 _064_
*111 _065_
*112 _066_
*113 _067_
*114 _068_
*115 _069_
*116 _070_
*117 _071_
*118 _072_
*119 _073_
*120 _074_
*121 _075_
*122 _076_
*123 _077_
*124 _078_
*125 _079_
*126 _080_
*127 _081_
*128 _082_
*129 _083_
*130 _084_
*131 _085_
*132 _086_
*133 _087_
*134 _088_
*135 _089_
*136 _090_
*137 _091_
*138 _092_
*139 _093_
*140 _094_
*141 _095_
*142 _096_
*143 _097_
*144 _098_
*145 _099_
*146 _100_
*147 _101_
*148 _102_
*149 _103_
*150 _104_
*151 _105_
*152 _106_
*153 _107_
*154 _108_
*155 _109_
*156 _110_
*157 _111_
*158 _112_
*159 _113_
*160 _114_
*161 _115_
*162 _116_
*163 _117_
*164 _118_
*165 _119_
*166 _120_
*167 _121_
*168 _122_
*169 _123_
*170 _124_
*171 _125_
*172 _126_
*173 _127_
*174 _128_
*175 _129_
*176 _130_
*177 _131_
*178 _132_
*179 _133_
*180 _134_
*181 _135_
*182 _136_
*183 _137_
*184 _138_
*185 _139_
*186 _140_
*187 _141_
*188 _142_
*189 _143_
*190 _144_
*191 _145_
*192 _146_
*193 _147_
*194 _148_
*195 _149_
*196 _150_
*197 _151_
*198 _152_
*199 _153_
*200 _154_
*201 _155_
*202 _156_
*203 _157_
*204 _158_
*205 _159_
*206 _160_
*207 _161_
*208 _162_
*209 _163_
*210 _164_
*211 clknet_0_clk
*212 clknet_2_0__leaf_clk
*213 clknet_2_1__leaf_clk
*214 clknet_2_2__leaf_clk
*215 clknet_2_3__leaf_clk
*216 net1
*217 net10
*218 net11
*219 net2
*220 net21
*221 net22
*222 net23
*223 net24
*224 net25
*225 net26
*226 net27
*227 net28
*228 net3
*229 net4
*230 net5
*231 net6
*232 net7
*233 net8
*234 net9
*235 second_counter\[0\]
*236 second_counter\[10\]
*237 second_counter\[11\]
*238 second_counter\[12\]
*239 second_counter\[13\]
*240 second_counter\[14\]
*241 second_counter\[15\]
*242 second_counter\[16\]
*243 second_counter\[17\]
*244 second_counter\[18\]
*245 second_counter\[19\]
*246 second_counter\[1\]
*247 second_counter\[20\]
*248 second_counter\[21\]
*249 second_counter\[22\]
*250 second_counter\[23\]
*251 second_counter\[2\]
*252 second_counter\[3\]
*253 second_counter\[4\]
*254 second_counter\[5\]
*255 second_counter\[6\]
*256 second_counter\[7\]
*257 second_counter\[8\]
*258 second_counter\[9\]
*259 seg7\.counter\[0\]
*260 seg7\.counter\[1\]
*261 seg7\.counter\[2\]
*262 seg7\.counter\[3\]
*263 FILLER_0_0_1005
*264 FILLER_0_0_1009
*265 FILLER_0_0_1021
*266 FILLER_0_0_1033
*267 FILLER_0_0_1037
*268 FILLER_0_0_1049
*269 FILLER_0_0_1061
*270 FILLER_0_0_1065
*271 FILLER_0_0_1077
*272 FILLER_0_0_1089
*273 FILLER_0_0_109
*274 FILLER_0_0_113
*275 FILLER_0_0_125
*276 FILLER_0_0_137
*277 FILLER_0_0_141
*278 FILLER_0_0_15
*279 FILLER_0_0_153
*280 FILLER_0_0_165
*281 FILLER_0_0_169
*282 FILLER_0_0_181
*283 FILLER_0_0_193
*284 FILLER_0_0_197
*285 FILLER_0_0_209
*286 FILLER_0_0_221
*287 FILLER_0_0_225
*288 FILLER_0_0_237
*289 FILLER_0_0_249
*290 FILLER_0_0_253
*291 FILLER_0_0_265
*292 FILLER_0_0_27
*293 FILLER_0_0_277
*294 FILLER_0_0_281
*295 FILLER_0_0_29
*296 FILLER_0_0_293
*297 FILLER_0_0_3
*298 FILLER_0_0_305
*299 FILLER_0_0_309
*300 FILLER_0_0_321
*301 FILLER_0_0_333
*302 FILLER_0_0_337
*303 FILLER_0_0_349
*304 FILLER_0_0_361
*305 FILLER_0_0_365
*306 FILLER_0_0_377
*307 FILLER_0_0_389
*308 FILLER_0_0_393
*309 FILLER_0_0_405
*310 FILLER_0_0_41
*311 FILLER_0_0_417
*312 FILLER_0_0_421
*313 FILLER_0_0_433
*314 FILLER_0_0_445
*315 FILLER_0_0_449
*316 FILLER_0_0_461
*317 FILLER_0_0_473
*318 FILLER_0_0_477
*319 FILLER_0_0_489
*320 FILLER_0_0_501
*321 FILLER_0_0_505
*322 FILLER_0_0_517
*323 FILLER_0_0_529
*324 FILLER_0_0_53
*325 FILLER_0_0_533
*326 FILLER_0_0_545
*327 FILLER_0_0_557
*328 FILLER_0_0_561
*329 FILLER_0_0_57
*330 FILLER_0_0_573
*331 FILLER_0_0_585
*332 FILLER_0_0_589
*333 FILLER_0_0_601
*334 FILLER_0_0_613
*335 FILLER_0_0_617
*336 FILLER_0_0_629
*337 FILLER_0_0_641
*338 FILLER_0_0_645
*339 FILLER_0_0_657
*340 FILLER_0_0_669
*341 FILLER_0_0_673
*342 FILLER_0_0_685
*343 FILLER_0_0_69
*344 FILLER_0_0_697
*345 FILLER_0_0_701
*346 FILLER_0_0_713
*347 FILLER_0_0_725
*348 FILLER_0_0_729
*349 FILLER_0_0_741
*350 FILLER_0_0_753
*351 FILLER_0_0_757
*352 FILLER_0_0_769
*353 FILLER_0_0_781
*354 FILLER_0_0_785
*355 FILLER_0_0_797
*356 FILLER_0_0_809
*357 FILLER_0_0_81
*358 FILLER_0_0_813
*359 FILLER_0_0_825
*360 FILLER_0_0_837
*361 FILLER_0_0_841
*362 FILLER_0_0_85
*363 FILLER_0_0_853
*364 FILLER_0_0_865
*365 FILLER_0_0_869
*366 FILLER_0_0_881
*367 FILLER_0_0_893
*368 FILLER_0_0_897
*369 FILLER_0_0_909
*370 FILLER_0_0_921
*371 FILLER_0_0_925
*372 FILLER_0_0_937
*373 FILLER_0_0_949
*374 FILLER_0_0_953
*375 FILLER_0_0_965
*376 FILLER_0_0_97
*377 FILLER_0_0_977
*378 FILLER_0_0_981
*379 FILLER_0_0_993
*380 FILLER_0_10_1005
*381 FILLER_0_10_1017
*382 FILLER_0_10_1029
*383 FILLER_0_10_1035
*384 FILLER_0_10_1037
*385 FILLER_0_10_1049
*386 FILLER_0_10_1061
*387 FILLER_0_10_1073
*388 FILLER_0_10_1085
*389 FILLER_0_10_109
*390 FILLER_0_10_121
*391 FILLER_0_10_133
*392 FILLER_0_10_139
*393 FILLER_0_10_141
*394 FILLER_0_10_15
*395 FILLER_0_10_153
*396 FILLER_0_10_165
*397 FILLER_0_10_177
*398 FILLER_0_10_189
*399 FILLER_0_10_195
*400 FILLER_0_10_197
*401 FILLER_0_10_209
*402 FILLER_0_10_221
*403 FILLER_0_10_233
*404 FILLER_0_10_245
*405 FILLER_0_10_251
*406 FILLER_0_10_253
*407 FILLER_0_10_265
*408 FILLER_0_10_27
*409 FILLER_0_10_277
*410 FILLER_0_10_289
*411 FILLER_0_10_29
*412 FILLER_0_10_3
*413 FILLER_0_10_301
*414 FILLER_0_10_307
*415 FILLER_0_10_309
*416 FILLER_0_10_321
*417 FILLER_0_10_333
*418 FILLER_0_10_345
*419 FILLER_0_10_357
*420 FILLER_0_10_363
*421 FILLER_0_10_365
*422 FILLER_0_10_377
*423 FILLER_0_10_389
*424 FILLER_0_10_401
*425 FILLER_0_10_41
*426 FILLER_0_10_413
*427 FILLER_0_10_419
*428 FILLER_0_10_421
*429 FILLER_0_10_433
*430 FILLER_0_10_445
*431 FILLER_0_10_457
*432 FILLER_0_10_469
*433 FILLER_0_10_475
*434 FILLER_0_10_477
*435 FILLER_0_10_489
*436 FILLER_0_10_501
*437 FILLER_0_10_513
*438 FILLER_0_10_525
*439 FILLER_0_10_53
*440 FILLER_0_10_531
*441 FILLER_0_10_533
*442 FILLER_0_10_545
*443 FILLER_0_10_557
*444 FILLER_0_10_569
*445 FILLER_0_10_581
*446 FILLER_0_10_587
*447 FILLER_0_10_589
*448 FILLER_0_10_601
*449 FILLER_0_10_613
*450 FILLER_0_10_625
*451 FILLER_0_10_637
*452 FILLER_0_10_643
*453 FILLER_0_10_645
*454 FILLER_0_10_65
*455 FILLER_0_10_657
*456 FILLER_0_10_669
*457 FILLER_0_10_681
*458 FILLER_0_10_693
*459 FILLER_0_10_699
*460 FILLER_0_10_701
*461 FILLER_0_10_713
*462 FILLER_0_10_725
*463 FILLER_0_10_737
*464 FILLER_0_10_749
*465 FILLER_0_10_755
*466 FILLER_0_10_757
*467 FILLER_0_10_769
*468 FILLER_0_10_77
*469 FILLER_0_10_781
*470 FILLER_0_10_793
*471 FILLER_0_10_805
*472 FILLER_0_10_811
*473 FILLER_0_10_813
*474 FILLER_0_10_825
*475 FILLER_0_10_83
*476 FILLER_0_10_837
*477 FILLER_0_10_849
*478 FILLER_0_10_85
*479 FILLER_0_10_861
*480 FILLER_0_10_867
*481 FILLER_0_10_869
*482 FILLER_0_10_881
*483 FILLER_0_10_893
*484 FILLER_0_10_905
*485 FILLER_0_10_917
*486 FILLER_0_10_923
*487 FILLER_0_10_925
*488 FILLER_0_10_937
*489 FILLER_0_10_949
*490 FILLER_0_10_961
*491 FILLER_0_10_97
*492 FILLER_0_10_973
*493 FILLER_0_10_979
*494 FILLER_0_10_981
*495 FILLER_0_10_993
*496 FILLER_0_11_1001
*497 FILLER_0_11_1007
*498 FILLER_0_11_1009
*499 FILLER_0_11_1021
*500 FILLER_0_11_1033
*501 FILLER_0_11_1045
*502 FILLER_0_11_105
*503 FILLER_0_11_1057
*504 FILLER_0_11_1063
*505 FILLER_0_11_1065
*506 FILLER_0_11_1077
*507 FILLER_0_11_1089
*508 FILLER_0_11_111
*509 FILLER_0_11_113
*510 FILLER_0_11_125
*511 FILLER_0_11_137
*512 FILLER_0_11_149
*513 FILLER_0_11_15
*514 FILLER_0_11_161
*515 FILLER_0_11_167
*516 FILLER_0_11_169
*517 FILLER_0_11_181
*518 FILLER_0_11_193
*519 FILLER_0_11_205
*520 FILLER_0_11_217
*521 FILLER_0_11_223
*522 FILLER_0_11_225
*523 FILLER_0_11_237
*524 FILLER_0_11_249
*525 FILLER_0_11_261
*526 FILLER_0_11_27
*527 FILLER_0_11_273
*528 FILLER_0_11_279
*529 FILLER_0_11_281
*530 FILLER_0_11_293
*531 FILLER_0_11_3
*532 FILLER_0_11_305
*533 FILLER_0_11_317
*534 FILLER_0_11_329
*535 FILLER_0_11_335
*536 FILLER_0_11_337
*537 FILLER_0_11_349
*538 FILLER_0_11_361
*539 FILLER_0_11_373
*540 FILLER_0_11_385
*541 FILLER_0_11_39
*542 FILLER_0_11_391
*543 FILLER_0_11_393
*544 FILLER_0_11_405
*545 FILLER_0_11_417
*546 FILLER_0_11_429
*547 FILLER_0_11_441
*548 FILLER_0_11_447
*549 FILLER_0_11_449
*550 FILLER_0_11_461
*551 FILLER_0_11_473
*552 FILLER_0_11_485
*553 FILLER_0_11_497
*554 FILLER_0_11_503
*555 FILLER_0_11_505
*556 FILLER_0_11_51
*557 FILLER_0_11_517
*558 FILLER_0_11_529
*559 FILLER_0_11_541
*560 FILLER_0_11_55
*561 FILLER_0_11_553
*562 FILLER_0_11_559
*563 FILLER_0_11_561
*564 FILLER_0_11_57
*565 FILLER_0_11_573
*566 FILLER_0_11_585
*567 FILLER_0_11_597
*568 FILLER_0_11_609
*569 FILLER_0_11_615
*570 FILLER_0_11_617
*571 FILLER_0_11_629
*572 FILLER_0_11_641
*573 FILLER_0_11_653
*574 FILLER_0_11_665
*575 FILLER_0_11_671
*576 FILLER_0_11_673
*577 FILLER_0_11_685
*578 FILLER_0_11_69
*579 FILLER_0_11_697
*580 FILLER_0_11_709
*581 FILLER_0_11_721
*582 FILLER_0_11_727
*583 FILLER_0_11_729
*584 FILLER_0_11_741
*585 FILLER_0_11_753
*586 FILLER_0_11_765
*587 FILLER_0_11_777
*588 FILLER_0_11_783
*589 FILLER_0_11_785
*590 FILLER_0_11_797
*591 FILLER_0_11_809
*592 FILLER_0_11_81
*593 FILLER_0_11_821
*594 FILLER_0_11_833
*595 FILLER_0_11_839
*596 FILLER_0_11_841
*597 FILLER_0_11_853
*598 FILLER_0_11_865
*599 FILLER_0_11_877
*600 FILLER_0_11_889
*601 FILLER_0_11_895
*602 FILLER_0_11_897
*603 FILLER_0_11_909
*604 FILLER_0_11_921
*605 FILLER_0_11_93
*606 FILLER_0_11_933
*607 FILLER_0_11_945
*608 FILLER_0_11_951
*609 FILLER_0_11_953
*610 FILLER_0_11_965
*611 FILLER_0_11_977
*612 FILLER_0_11_989
*613 FILLER_0_12_1005
*614 FILLER_0_12_1017
*615 FILLER_0_12_1029
*616 FILLER_0_12_1035
*617 FILLER_0_12_1037
*618 FILLER_0_12_1049
*619 FILLER_0_12_1061
*620 FILLER_0_12_1073
*621 FILLER_0_12_1085
*622 FILLER_0_12_109
*623 FILLER_0_12_121
*624 FILLER_0_12_133
*625 FILLER_0_12_139
*626 FILLER_0_12_141
*627 FILLER_0_12_15
*628 FILLER_0_12_153
*629 FILLER_0_12_165
*630 FILLER_0_12_177
*631 FILLER_0_12_189
*632 FILLER_0_12_195
*633 FILLER_0_12_197
*634 FILLER_0_12_209
*635 FILLER_0_12_221
*636 FILLER_0_12_233
*637 FILLER_0_12_245
*638 FILLER_0_12_251
*639 FILLER_0_12_253
*640 FILLER_0_12_265
*641 FILLER_0_12_27
*642 FILLER_0_12_277
*643 FILLER_0_12_289
*644 FILLER_0_12_29
*645 FILLER_0_12_3
*646 FILLER_0_12_301
*647 FILLER_0_12_307
*648 FILLER_0_12_309
*649 FILLER_0_12_321
*650 FILLER_0_12_333
*651 FILLER_0_12_345
*652 FILLER_0_12_357
*653 FILLER_0_12_363
*654 FILLER_0_12_365
*655 FILLER_0_12_377
*656 FILLER_0_12_389
*657 FILLER_0_12_401
*658 FILLER_0_12_41
*659 FILLER_0_12_413
*660 FILLER_0_12_419
*661 FILLER_0_12_421
*662 FILLER_0_12_433
*663 FILLER_0_12_445
*664 FILLER_0_12_457
*665 FILLER_0_12_469
*666 FILLER_0_12_475
*667 FILLER_0_12_477
*668 FILLER_0_12_489
*669 FILLER_0_12_501
*670 FILLER_0_12_513
*671 FILLER_0_12_525
*672 FILLER_0_12_53
*673 FILLER_0_12_531
*674 FILLER_0_12_533
*675 FILLER_0_12_545
*676 FILLER_0_12_557
*677 FILLER_0_12_569
*678 FILLER_0_12_581
*679 FILLER_0_12_587
*680 FILLER_0_12_589
*681 FILLER_0_12_601
*682 FILLER_0_12_613
*683 FILLER_0_12_625
*684 FILLER_0_12_637
*685 FILLER_0_12_643
*686 FILLER_0_12_645
*687 FILLER_0_12_65
*688 FILLER_0_12_657
*689 FILLER_0_12_669
*690 FILLER_0_12_681
*691 FILLER_0_12_693
*692 FILLER_0_12_699
*693 FILLER_0_12_701
*694 FILLER_0_12_713
*695 FILLER_0_12_725
*696 FILLER_0_12_737
*697 FILLER_0_12_749
*698 FILLER_0_12_755
*699 FILLER_0_12_757
*700 FILLER_0_12_769
*701 FILLER_0_12_77
*702 FILLER_0_12_781
*703 FILLER_0_12_793
*704 FILLER_0_12_805
*705 FILLER_0_12_811
*706 FILLER_0_12_813
*707 FILLER_0_12_825
*708 FILLER_0_12_83
*709 FILLER_0_12_837
*710 FILLER_0_12_849
*711 FILLER_0_12_85
*712 FILLER_0_12_861
*713 FILLER_0_12_867
*714 FILLER_0_12_869
*715 FILLER_0_12_881
*716 FILLER_0_12_893
*717 FILLER_0_12_905
*718 FILLER_0_12_917
*719 FILLER_0_12_923
*720 FILLER_0_12_925
*721 FILLER_0_12_937
*722 FILLER_0_12_949
*723 FILLER_0_12_961
*724 FILLER_0_12_97
*725 FILLER_0_12_973
*726 FILLER_0_12_979
*727 FILLER_0_12_981
*728 FILLER_0_12_993
*729 FILLER_0_13_1001
*730 FILLER_0_13_1007
*731 FILLER_0_13_1009
*732 FILLER_0_13_1021
*733 FILLER_0_13_1033
*734 FILLER_0_13_1045
*735 FILLER_0_13_105
*736 FILLER_0_13_1057
*737 FILLER_0_13_1063
*738 FILLER_0_13_1065
*739 FILLER_0_13_1077
*740 FILLER_0_13_1089
*741 FILLER_0_13_111
*742 FILLER_0_13_113
*743 FILLER_0_13_125
*744 FILLER_0_13_137
*745 FILLER_0_13_149
*746 FILLER_0_13_15
*747 FILLER_0_13_161
*748 FILLER_0_13_167
*749 FILLER_0_13_169
*750 FILLER_0_13_181
*751 FILLER_0_13_193
*752 FILLER_0_13_205
*753 FILLER_0_13_217
*754 FILLER_0_13_223
*755 FILLER_0_13_225
*756 FILLER_0_13_237
*757 FILLER_0_13_249
*758 FILLER_0_13_261
*759 FILLER_0_13_27
*760 FILLER_0_13_273
*761 FILLER_0_13_279
*762 FILLER_0_13_281
*763 FILLER_0_13_293
*764 FILLER_0_13_3
*765 FILLER_0_13_305
*766 FILLER_0_13_317
*767 FILLER_0_13_329
*768 FILLER_0_13_335
*769 FILLER_0_13_337
*770 FILLER_0_13_349
*771 FILLER_0_13_361
*772 FILLER_0_13_373
*773 FILLER_0_13_385
*774 FILLER_0_13_39
*775 FILLER_0_13_391
*776 FILLER_0_13_393
*777 FILLER_0_13_405
*778 FILLER_0_13_417
*779 FILLER_0_13_429
*780 FILLER_0_13_441
*781 FILLER_0_13_447
*782 FILLER_0_13_449
*783 FILLER_0_13_461
*784 FILLER_0_13_473
*785 FILLER_0_13_485
*786 FILLER_0_13_497
*787 FILLER_0_13_503
*788 FILLER_0_13_505
*789 FILLER_0_13_51
*790 FILLER_0_13_517
*791 FILLER_0_13_529
*792 FILLER_0_13_541
*793 FILLER_0_13_55
*794 FILLER_0_13_553
*795 FILLER_0_13_559
*796 FILLER_0_13_561
*797 FILLER_0_13_57
*798 FILLER_0_13_573
*799 FILLER_0_13_585
*800 FILLER_0_13_597
*801 FILLER_0_13_609
*802 FILLER_0_13_615
*803 FILLER_0_13_617
*804 FILLER_0_13_629
*805 FILLER_0_13_641
*806 FILLER_0_13_653
*807 FILLER_0_13_665
*808 FILLER_0_13_671
*809 FILLER_0_13_673
*810 FILLER_0_13_685
*811 FILLER_0_13_69
*812 FILLER_0_13_697
*813 FILLER_0_13_709
*814 FILLER_0_13_721
*815 FILLER_0_13_727
*816 FILLER_0_13_729
*817 FILLER_0_13_741
*818 FILLER_0_13_753
*819 FILLER_0_13_765
*820 FILLER_0_13_777
*821 FILLER_0_13_783
*822 FILLER_0_13_785
*823 FILLER_0_13_797
*824 FILLER_0_13_809
*825 FILLER_0_13_81
*826 FILLER_0_13_821
*827 FILLER_0_13_833
*828 FILLER_0_13_839
*829 FILLER_0_13_841
*830 FILLER_0_13_853
*831 FILLER_0_13_865
*832 FILLER_0_13_877
*833 FILLER_0_13_889
*834 FILLER_0_13_895
*835 FILLER_0_13_897
*836 FILLER_0_13_909
*837 FILLER_0_13_921
*838 FILLER_0_13_93
*839 FILLER_0_13_933
*840 FILLER_0_13_945
*841 FILLER_0_13_951
*842 FILLER_0_13_953
*843 FILLER_0_13_965
*844 FILLER_0_13_977
*845 FILLER_0_13_989
*846 FILLER_0_14_1005
*847 FILLER_0_14_1017
*848 FILLER_0_14_1029
*849 FILLER_0_14_1035
*850 FILLER_0_14_1037
*851 FILLER_0_14_1049
*852 FILLER_0_14_1061
*853 FILLER_0_14_1073
*854 FILLER_0_14_1085
*855 FILLER_0_14_109
*856 FILLER_0_14_121
*857 FILLER_0_14_133
*858 FILLER_0_14_139
*859 FILLER_0_14_141
*860 FILLER_0_14_15
*861 FILLER_0_14_153
*862 FILLER_0_14_165
*863 FILLER_0_14_177
*864 FILLER_0_14_189
*865 FILLER_0_14_195
*866 FILLER_0_14_197
*867 FILLER_0_14_209
*868 FILLER_0_14_221
*869 FILLER_0_14_233
*870 FILLER_0_14_245
*871 FILLER_0_14_251
*872 FILLER_0_14_253
*873 FILLER_0_14_265
*874 FILLER_0_14_27
*875 FILLER_0_14_277
*876 FILLER_0_14_289
*877 FILLER_0_14_29
*878 FILLER_0_14_3
*879 FILLER_0_14_301
*880 FILLER_0_14_307
*881 FILLER_0_14_309
*882 FILLER_0_14_321
*883 FILLER_0_14_333
*884 FILLER_0_14_345
*885 FILLER_0_14_357
*886 FILLER_0_14_363
*887 FILLER_0_14_365
*888 FILLER_0_14_377
*889 FILLER_0_14_389
*890 FILLER_0_14_401
*891 FILLER_0_14_41
*892 FILLER_0_14_413
*893 FILLER_0_14_419
*894 FILLER_0_14_421
*895 FILLER_0_14_433
*896 FILLER_0_14_445
*897 FILLER_0_14_457
*898 FILLER_0_14_469
*899 FILLER_0_14_475
*900 FILLER_0_14_477
*901 FILLER_0_14_489
*902 FILLER_0_14_501
*903 FILLER_0_14_513
*904 FILLER_0_14_525
*905 FILLER_0_14_53
*906 FILLER_0_14_531
*907 FILLER_0_14_533
*908 FILLER_0_14_545
*909 FILLER_0_14_557
*910 FILLER_0_14_569
*911 FILLER_0_14_581
*912 FILLER_0_14_587
*913 FILLER_0_14_589
*914 FILLER_0_14_601
*915 FILLER_0_14_613
*916 FILLER_0_14_625
*917 FILLER_0_14_637
*918 FILLER_0_14_643
*919 FILLER_0_14_645
*920 FILLER_0_14_65
*921 FILLER_0_14_657
*922 FILLER_0_14_669
*923 FILLER_0_14_681
*924 FILLER_0_14_693
*925 FILLER_0_14_699
*926 FILLER_0_14_701
*927 FILLER_0_14_713
*928 FILLER_0_14_725
*929 FILLER_0_14_737
*930 FILLER_0_14_749
*931 FILLER_0_14_755
*932 FILLER_0_14_757
*933 FILLER_0_14_769
*934 FILLER_0_14_77
*935 FILLER_0_14_781
*936 FILLER_0_14_793
*937 FILLER_0_14_805
*938 FILLER_0_14_811
*939 FILLER_0_14_813
*940 FILLER_0_14_825
*941 FILLER_0_14_83
*942 FILLER_0_14_837
*943 FILLER_0_14_849
*944 FILLER_0_14_85
*945 FILLER_0_14_861
*946 FILLER_0_14_867
*947 FILLER_0_14_869
*948 FILLER_0_14_881
*949 FILLER_0_14_893
*950 FILLER_0_14_905
*951 FILLER_0_14_917
*952 FILLER_0_14_923
*953 FILLER_0_14_925
*954 FILLER_0_14_937
*955 FILLER_0_14_949
*956 FILLER_0_14_961
*957 FILLER_0_14_97
*958 FILLER_0_14_973
*959 FILLER_0_14_979
*960 FILLER_0_14_981
*961 FILLER_0_14_993
*962 FILLER_0_15_1001
*963 FILLER_0_15_1007
*964 FILLER_0_15_1009
*965 FILLER_0_15_1021
*966 FILLER_0_15_1033
*967 FILLER_0_15_1045
*968 FILLER_0_15_105
*969 FILLER_0_15_1057
*970 FILLER_0_15_1063
*971 FILLER_0_15_1065
*972 FILLER_0_15_1077
*973 FILLER_0_15_1089
*974 FILLER_0_15_111
*975 FILLER_0_15_113
*976 FILLER_0_15_125
*977 FILLER_0_15_137
*978 FILLER_0_15_149
*979 FILLER_0_15_15
*980 FILLER_0_15_161
*981 FILLER_0_15_167
*982 FILLER_0_15_169
*983 FILLER_0_15_181
*984 FILLER_0_15_193
*985 FILLER_0_15_205
*986 FILLER_0_15_217
*987 FILLER_0_15_223
*988 FILLER_0_15_225
*989 FILLER_0_15_237
*990 FILLER_0_15_249
*991 FILLER_0_15_261
*992 FILLER_0_15_27
*993 FILLER_0_15_273
*994 FILLER_0_15_279
*995 FILLER_0_15_281
*996 FILLER_0_15_293
*997 FILLER_0_15_3
*998 FILLER_0_15_305
*999 FILLER_0_15_317
*1000 FILLER_0_15_329
*1001 FILLER_0_15_335
*1002 FILLER_0_15_337
*1003 FILLER_0_15_349
*1004 FILLER_0_15_361
*1005 FILLER_0_15_373
*1006 FILLER_0_15_385
*1007 FILLER_0_15_39
*1008 FILLER_0_15_391
*1009 FILLER_0_15_393
*1010 FILLER_0_15_405
*1011 FILLER_0_15_417
*1012 FILLER_0_15_429
*1013 FILLER_0_15_441
*1014 FILLER_0_15_447
*1015 FILLER_0_15_449
*1016 FILLER_0_15_461
*1017 FILLER_0_15_473
*1018 FILLER_0_15_485
*1019 FILLER_0_15_497
*1020 FILLER_0_15_503
*1021 FILLER_0_15_505
*1022 FILLER_0_15_51
*1023 FILLER_0_15_517
*1024 FILLER_0_15_529
*1025 FILLER_0_15_541
*1026 FILLER_0_15_55
*1027 FILLER_0_15_553
*1028 FILLER_0_15_559
*1029 FILLER_0_15_561
*1030 FILLER_0_15_57
*1031 FILLER_0_15_573
*1032 FILLER_0_15_585
*1033 FILLER_0_15_597
*1034 FILLER_0_15_609
*1035 FILLER_0_15_615
*1036 FILLER_0_15_617
*1037 FILLER_0_15_629
*1038 FILLER_0_15_641
*1039 FILLER_0_15_653
*1040 FILLER_0_15_665
*1041 FILLER_0_15_671
*1042 FILLER_0_15_673
*1043 FILLER_0_15_685
*1044 FILLER_0_15_69
*1045 FILLER_0_15_697
*1046 FILLER_0_15_709
*1047 FILLER_0_15_721
*1048 FILLER_0_15_727
*1049 FILLER_0_15_729
*1050 FILLER_0_15_741
*1051 FILLER_0_15_753
*1052 FILLER_0_15_765
*1053 FILLER_0_15_777
*1054 FILLER_0_15_783
*1055 FILLER_0_15_785
*1056 FILLER_0_15_797
*1057 FILLER_0_15_809
*1058 FILLER_0_15_81
*1059 FILLER_0_15_821
*1060 FILLER_0_15_833
*1061 FILLER_0_15_839
*1062 FILLER_0_15_841
*1063 FILLER_0_15_853
*1064 FILLER_0_15_865
*1065 FILLER_0_15_877
*1066 FILLER_0_15_889
*1067 FILLER_0_15_895
*1068 FILLER_0_15_897
*1069 FILLER_0_15_909
*1070 FILLER_0_15_921
*1071 FILLER_0_15_93
*1072 FILLER_0_15_933
*1073 FILLER_0_15_945
*1074 FILLER_0_15_951
*1075 FILLER_0_15_953
*1076 FILLER_0_15_965
*1077 FILLER_0_15_977
*1078 FILLER_0_15_989
*1079 FILLER_0_16_1005
*1080 FILLER_0_16_1017
*1081 FILLER_0_16_1029
*1082 FILLER_0_16_1035
*1083 FILLER_0_16_1037
*1084 FILLER_0_16_1049
*1085 FILLER_0_16_1061
*1086 FILLER_0_16_1073
*1087 FILLER_0_16_1085
*1088 FILLER_0_16_109
*1089 FILLER_0_16_121
*1090 FILLER_0_16_133
*1091 FILLER_0_16_139
*1092 FILLER_0_16_141
*1093 FILLER_0_16_15
*1094 FILLER_0_16_153
*1095 FILLER_0_16_165
*1096 FILLER_0_16_177
*1097 FILLER_0_16_189
*1098 FILLER_0_16_195
*1099 FILLER_0_16_197
*1100 FILLER_0_16_209
*1101 FILLER_0_16_221
*1102 FILLER_0_16_233
*1103 FILLER_0_16_245
*1104 FILLER_0_16_251
*1105 FILLER_0_16_253
*1106 FILLER_0_16_265
*1107 FILLER_0_16_27
*1108 FILLER_0_16_277
*1109 FILLER_0_16_289
*1110 FILLER_0_16_29
*1111 FILLER_0_16_3
*1112 FILLER_0_16_301
*1113 FILLER_0_16_307
*1114 FILLER_0_16_309
*1115 FILLER_0_16_321
*1116 FILLER_0_16_333
*1117 FILLER_0_16_345
*1118 FILLER_0_16_357
*1119 FILLER_0_16_363
*1120 FILLER_0_16_365
*1121 FILLER_0_16_377
*1122 FILLER_0_16_389
*1123 FILLER_0_16_401
*1124 FILLER_0_16_41
*1125 FILLER_0_16_413
*1126 FILLER_0_16_419
*1127 FILLER_0_16_421
*1128 FILLER_0_16_433
*1129 FILLER_0_16_445
*1130 FILLER_0_16_457
*1131 FILLER_0_16_469
*1132 FILLER_0_16_475
*1133 FILLER_0_16_477
*1134 FILLER_0_16_489
*1135 FILLER_0_16_501
*1136 FILLER_0_16_513
*1137 FILLER_0_16_525
*1138 FILLER_0_16_53
*1139 FILLER_0_16_531
*1140 FILLER_0_16_533
*1141 FILLER_0_16_545
*1142 FILLER_0_16_557
*1143 FILLER_0_16_569
*1144 FILLER_0_16_581
*1145 FILLER_0_16_587
*1146 FILLER_0_16_589
*1147 FILLER_0_16_601
*1148 FILLER_0_16_613
*1149 FILLER_0_16_625
*1150 FILLER_0_16_637
*1151 FILLER_0_16_643
*1152 FILLER_0_16_645
*1153 FILLER_0_16_65
*1154 FILLER_0_16_657
*1155 FILLER_0_16_669
*1156 FILLER_0_16_681
*1157 FILLER_0_16_693
*1158 FILLER_0_16_699
*1159 FILLER_0_16_701
*1160 FILLER_0_16_713
*1161 FILLER_0_16_725
*1162 FILLER_0_16_737
*1163 FILLER_0_16_749
*1164 FILLER_0_16_755
*1165 FILLER_0_16_757
*1166 FILLER_0_16_769
*1167 FILLER_0_16_77
*1168 FILLER_0_16_781
*1169 FILLER_0_16_793
*1170 FILLER_0_16_805
*1171 FILLER_0_16_811
*1172 FILLER_0_16_813
*1173 FILLER_0_16_825
*1174 FILLER_0_16_83
*1175 FILLER_0_16_837
*1176 FILLER_0_16_849
*1177 FILLER_0_16_85
*1178 FILLER_0_16_861
*1179 FILLER_0_16_867
*1180 FILLER_0_16_869
*1181 FILLER_0_16_881
*1182 FILLER_0_16_893
*1183 FILLER_0_16_905
*1184 FILLER_0_16_917
*1185 FILLER_0_16_923
*1186 FILLER_0_16_925
*1187 FILLER_0_16_937
*1188 FILLER_0_16_949
*1189 FILLER_0_16_961
*1190 FILLER_0_16_97
*1191 FILLER_0_16_973
*1192 FILLER_0_16_979
*1193 FILLER_0_16_981
*1194 FILLER_0_16_993
*1195 FILLER_0_17_1001
*1196 FILLER_0_17_1007
*1197 FILLER_0_17_1009
*1198 FILLER_0_17_1021
*1199 FILLER_0_17_1033
*1200 FILLER_0_17_1045
*1201 FILLER_0_17_105
*1202 FILLER_0_17_1057
*1203 FILLER_0_17_1063
*1204 FILLER_0_17_1065
*1205 FILLER_0_17_1077
*1206 FILLER_0_17_1089
*1207 FILLER_0_17_111
*1208 FILLER_0_17_113
*1209 FILLER_0_17_125
*1210 FILLER_0_17_137
*1211 FILLER_0_17_149
*1212 FILLER_0_17_15
*1213 FILLER_0_17_161
*1214 FILLER_0_17_167
*1215 FILLER_0_17_169
*1216 FILLER_0_17_181
*1217 FILLER_0_17_193
*1218 FILLER_0_17_205
*1219 FILLER_0_17_217
*1220 FILLER_0_17_223
*1221 FILLER_0_17_225
*1222 FILLER_0_17_237
*1223 FILLER_0_17_249
*1224 FILLER_0_17_261
*1225 FILLER_0_17_27
*1226 FILLER_0_17_273
*1227 FILLER_0_17_279
*1228 FILLER_0_17_281
*1229 FILLER_0_17_293
*1230 FILLER_0_17_3
*1231 FILLER_0_17_305
*1232 FILLER_0_17_317
*1233 FILLER_0_17_329
*1234 FILLER_0_17_335
*1235 FILLER_0_17_337
*1236 FILLER_0_17_349
*1237 FILLER_0_17_361
*1238 FILLER_0_17_373
*1239 FILLER_0_17_385
*1240 FILLER_0_17_39
*1241 FILLER_0_17_391
*1242 FILLER_0_17_393
*1243 FILLER_0_17_405
*1244 FILLER_0_17_417
*1245 FILLER_0_17_429
*1246 FILLER_0_17_441
*1247 FILLER_0_17_447
*1248 FILLER_0_17_449
*1249 FILLER_0_17_461
*1250 FILLER_0_17_473
*1251 FILLER_0_17_485
*1252 FILLER_0_17_497
*1253 FILLER_0_17_503
*1254 FILLER_0_17_505
*1255 FILLER_0_17_51
*1256 FILLER_0_17_517
*1257 FILLER_0_17_529
*1258 FILLER_0_17_541
*1259 FILLER_0_17_55
*1260 FILLER_0_17_553
*1261 FILLER_0_17_559
*1262 FILLER_0_17_561
*1263 FILLER_0_17_57
*1264 FILLER_0_17_573
*1265 FILLER_0_17_585
*1266 FILLER_0_17_597
*1267 FILLER_0_17_609
*1268 FILLER_0_17_615
*1269 FILLER_0_17_617
*1270 FILLER_0_17_629
*1271 FILLER_0_17_641
*1272 FILLER_0_17_653
*1273 FILLER_0_17_665
*1274 FILLER_0_17_671
*1275 FILLER_0_17_673
*1276 FILLER_0_17_685
*1277 FILLER_0_17_69
*1278 FILLER_0_17_697
*1279 FILLER_0_17_709
*1280 FILLER_0_17_721
*1281 FILLER_0_17_727
*1282 FILLER_0_17_729
*1283 FILLER_0_17_741
*1284 FILLER_0_17_753
*1285 FILLER_0_17_765
*1286 FILLER_0_17_777
*1287 FILLER_0_17_783
*1288 FILLER_0_17_785
*1289 FILLER_0_17_797
*1290 FILLER_0_17_809
*1291 FILLER_0_17_81
*1292 FILLER_0_17_821
*1293 FILLER_0_17_833
*1294 FILLER_0_17_839
*1295 FILLER_0_17_841
*1296 FILLER_0_17_853
*1297 FILLER_0_17_865
*1298 FILLER_0_17_877
*1299 FILLER_0_17_889
*1300 FILLER_0_17_895
*1301 FILLER_0_17_897
*1302 FILLER_0_17_909
*1303 FILLER_0_17_921
*1304 FILLER_0_17_93
*1305 FILLER_0_17_933
*1306 FILLER_0_17_945
*1307 FILLER_0_17_951
*1308 FILLER_0_17_953
*1309 FILLER_0_17_965
*1310 FILLER_0_17_977
*1311 FILLER_0_17_989
*1312 FILLER_0_18_1005
*1313 FILLER_0_18_1017
*1314 FILLER_0_18_1029
*1315 FILLER_0_18_1035
*1316 FILLER_0_18_1037
*1317 FILLER_0_18_1049
*1318 FILLER_0_18_1061
*1319 FILLER_0_18_1073
*1320 FILLER_0_18_1085
*1321 FILLER_0_18_109
*1322 FILLER_0_18_121
*1323 FILLER_0_18_133
*1324 FILLER_0_18_139
*1325 FILLER_0_18_141
*1326 FILLER_0_18_15
*1327 FILLER_0_18_153
*1328 FILLER_0_18_165
*1329 FILLER_0_18_177
*1330 FILLER_0_18_189
*1331 FILLER_0_18_195
*1332 FILLER_0_18_197
*1333 FILLER_0_18_209
*1334 FILLER_0_18_221
*1335 FILLER_0_18_233
*1336 FILLER_0_18_245
*1337 FILLER_0_18_251
*1338 FILLER_0_18_253
*1339 FILLER_0_18_265
*1340 FILLER_0_18_27
*1341 FILLER_0_18_277
*1342 FILLER_0_18_289
*1343 FILLER_0_18_29
*1344 FILLER_0_18_3
*1345 FILLER_0_18_301
*1346 FILLER_0_18_307
*1347 FILLER_0_18_309
*1348 FILLER_0_18_321
*1349 FILLER_0_18_333
*1350 FILLER_0_18_345
*1351 FILLER_0_18_357
*1352 FILLER_0_18_363
*1353 FILLER_0_18_365
*1354 FILLER_0_18_377
*1355 FILLER_0_18_389
*1356 FILLER_0_18_401
*1357 FILLER_0_18_41
*1358 FILLER_0_18_413
*1359 FILLER_0_18_419
*1360 FILLER_0_18_421
*1361 FILLER_0_18_433
*1362 FILLER_0_18_445
*1363 FILLER_0_18_457
*1364 FILLER_0_18_469
*1365 FILLER_0_18_475
*1366 FILLER_0_18_477
*1367 FILLER_0_18_489
*1368 FILLER_0_18_501
*1369 FILLER_0_18_513
*1370 FILLER_0_18_525
*1371 FILLER_0_18_53
*1372 FILLER_0_18_531
*1373 FILLER_0_18_533
*1374 FILLER_0_18_545
*1375 FILLER_0_18_557
*1376 FILLER_0_18_569
*1377 FILLER_0_18_581
*1378 FILLER_0_18_587
*1379 FILLER_0_18_589
*1380 FILLER_0_18_601
*1381 FILLER_0_18_613
*1382 FILLER_0_18_625
*1383 FILLER_0_18_637
*1384 FILLER_0_18_643
*1385 FILLER_0_18_645
*1386 FILLER_0_18_65
*1387 FILLER_0_18_657
*1388 FILLER_0_18_669
*1389 FILLER_0_18_681
*1390 FILLER_0_18_693
*1391 FILLER_0_18_699
*1392 FILLER_0_18_701
*1393 FILLER_0_18_713
*1394 FILLER_0_18_725
*1395 FILLER_0_18_737
*1396 FILLER_0_18_749
*1397 FILLER_0_18_755
*1398 FILLER_0_18_757
*1399 FILLER_0_18_769
*1400 FILLER_0_18_77
*1401 FILLER_0_18_781
*1402 FILLER_0_18_793
*1403 FILLER_0_18_805
*1404 FILLER_0_18_811
*1405 FILLER_0_18_813
*1406 FILLER_0_18_825
*1407 FILLER_0_18_83
*1408 FILLER_0_18_837
*1409 FILLER_0_18_849
*1410 FILLER_0_18_85
*1411 FILLER_0_18_861
*1412 FILLER_0_18_867
*1413 FILLER_0_18_869
*1414 FILLER_0_18_881
*1415 FILLER_0_18_893
*1416 FILLER_0_18_905
*1417 FILLER_0_18_917
*1418 FILLER_0_18_923
*1419 FILLER_0_18_925
*1420 FILLER_0_18_937
*1421 FILLER_0_18_949
*1422 FILLER_0_18_961
*1423 FILLER_0_18_97
*1424 FILLER_0_18_973
*1425 FILLER_0_18_979
*1426 FILLER_0_18_981
*1427 FILLER_0_18_993
*1428 FILLER_0_19_1001
*1429 FILLER_0_19_1007
*1430 FILLER_0_19_1009
*1431 FILLER_0_19_1021
*1432 FILLER_0_19_1033
*1433 FILLER_0_19_1045
*1434 FILLER_0_19_105
*1435 FILLER_0_19_1057
*1436 FILLER_0_19_1063
*1437 FILLER_0_19_1065
*1438 FILLER_0_19_1077
*1439 FILLER_0_19_1089
*1440 FILLER_0_19_111
*1441 FILLER_0_19_113
*1442 FILLER_0_19_125
*1443 FILLER_0_19_137
*1444 FILLER_0_19_149
*1445 FILLER_0_19_15
*1446 FILLER_0_19_161
*1447 FILLER_0_19_167
*1448 FILLER_0_19_169
*1449 FILLER_0_19_181
*1450 FILLER_0_19_193
*1451 FILLER_0_19_205
*1452 FILLER_0_19_217
*1453 FILLER_0_19_223
*1454 FILLER_0_19_225
*1455 FILLER_0_19_237
*1456 FILLER_0_19_249
*1457 FILLER_0_19_261
*1458 FILLER_0_19_27
*1459 FILLER_0_19_273
*1460 FILLER_0_19_279
*1461 FILLER_0_19_281
*1462 FILLER_0_19_293
*1463 FILLER_0_19_3
*1464 FILLER_0_19_305
*1465 FILLER_0_19_317
*1466 FILLER_0_19_329
*1467 FILLER_0_19_335
*1468 FILLER_0_19_337
*1469 FILLER_0_19_349
*1470 FILLER_0_19_361
*1471 FILLER_0_19_373
*1472 FILLER_0_19_385
*1473 FILLER_0_19_39
*1474 FILLER_0_19_391
*1475 FILLER_0_19_393
*1476 FILLER_0_19_405
*1477 FILLER_0_19_417
*1478 FILLER_0_19_429
*1479 FILLER_0_19_441
*1480 FILLER_0_19_447
*1481 FILLER_0_19_449
*1482 FILLER_0_19_461
*1483 FILLER_0_19_473
*1484 FILLER_0_19_485
*1485 FILLER_0_19_497
*1486 FILLER_0_19_503
*1487 FILLER_0_19_505
*1488 FILLER_0_19_51
*1489 FILLER_0_19_517
*1490 FILLER_0_19_529
*1491 FILLER_0_19_541
*1492 FILLER_0_19_55
*1493 FILLER_0_19_553
*1494 FILLER_0_19_559
*1495 FILLER_0_19_561
*1496 FILLER_0_19_57
*1497 FILLER_0_19_573
*1498 FILLER_0_19_585
*1499 FILLER_0_19_597